LAMMPS (29 Aug 2024)
units                  real
atom_style	       full
bond_style	       harmonic
angle_style	       harmonic
boundary	       p p p

neighbor 2.0 bin
neigh_modify every 1 delay 0 check yes

# ============= read data and parameters files

pair_style            lj/cut 10.0
pair_modify           shift yes mix arithmetic

read_data             equilb_200ps.data
Reading data file ...
  orthogonal box = (-0.1495 -0.193001 -38.75) to (32.8505 32.806999 41.25)
  reading atoms ...
  4369 atoms
  reading velocities ...
  4369 velocities
  scanning bonds ...
  scanning angles ...
  scanning dihedrals ...
  scanning impropers ...
  orthogonal box = (-0.1495 -0.193001 -38.75) to (32.8505 32.806999 41.25)
  reading bonds ...
  3937 bonds
  reading angles ...
  4687 angles
  reading dihedrals ...
  6951 dihedrals
  reading impropers ...
  1152 impropers
Finding 1-2 1-3 1-4 neighbors ...
     4 = max # of 1-2 neighbors
     6 = max # of 1-3 neighbors
    18 = max # of 1-4 neighbors
    18 = max # of special neighbors

pair_coeff  1  1      0.0859  3.3997
pair_coeff  2  2      0.0659  3.5000
pair_coeff  3  3      0.0859  3.3997
pair_coeff  4  4      0.0859  3.3997
pair_coeff  5  5      0.0299  2.5000
pair_coeff  6  6      0.0000  1.0000
pair_coeff  7  7      0.1521  3.1507

bond_coeff     1      938.0    1.42
bond_coeff     2      661.2    1.10
bond_coeff     3      938.0    1.42
bond_coeff     4      938.0    1.42
bond_coeff     5      450.0    0.9572

angle_coeff    1      126      120.0
angle_coeff    2      126      120.0
angle_coeff    3      126      120.0
angle_coeff    4      78.8     109.5
angle_coeff    5      55.0     104.52

group  water     type 6  7
2985 atoms in group water
group  memb      type 1
438 atoms in group memb
group  CG1       type 3
448 atoms in group CG1
group  CG2       type 4
448 atoms in group CG2
group  CG3       type 3 4
896 atoms in group CG3

compute 9 all pe/atom

dump dump_1 all custom 1000 dump.lammpstrj id type x y z

timestep 1.0
thermo_style custom step time cpu temp pe ke etotal press vol
thermo 100

fix                    myshk1  water shake 1.0e-5 200 0 b 5 a 5
Finding SHAKE clusters ...
       0 = # of size 2 clusters
       0 = # of size 3 clusters
       0 = # of size 4 clusters
     995 = # of frozen angles
  find clusters CPU = 0.000 seconds

fix                    freeze memb setforce 0.0 0.0 0.0

fix                    pistonkeep CG3  setforce  0.0   0.0    NULL
fix                    myforce1   CG1  aveforce  NULL  NULL  -1.439     #P=250 bars
fix                    freeze1    CG2  setforce 0.0 0.0 0.0

fix                    mynvt  all nvt temp 300 300 100.0
run                    1000000

CITE-CITE-CITE-CITE-CITE-CITE-CITE-CITE-CITE-CITE-CITE-CITE-CITE

Your simulation uses code contributions which should be cited:

- Type Label Framework: https://doi.org/10.1021/acs.jpcb.3c08419

@Article{Gissinger24,
 author = {Jacob R. Gissinger, Ilia Nikiforov, Yaser Afshar, Brendon Waters, Moon-ki Choi, Daniel S. Karls, Alexander Stukowski, Wonpil Im, Hendrik Heinz, Axel Kohlmeyer, and Ellad B. Tadmor},
 title = {Type Label Framework for Bonded Force Fields in LAMMPS},
 journal = {J. Phys. Chem. B},
 year =    2024,
 volume =  128,
 number =  13,
 pages =   {3282â€“-3297}
}

CITE-CITE-CITE-CITE-CITE-CITE-CITE-CITE-CITE-CITE-CITE-CITE-CITE

Generated 21 of 21 mixed pair_coeff terms from arithmetic mixing rule
Step          Time           CPU            Temp          PotEng         KinEng         TotEng         Press          Volume
0   0              0              301.03661      8476.991       3026.7041      11503.695      61294.04       87120
Averages over the last 5001 of 10001 rows, steps 500000 to 1000000:
Temp PotEng KinEng TotEng Press Volume
300.04 9513.39 3016.69 12530.1 67412.5 87120
Loop time of 8715.36 on 8 procs for 1000000 steps with 4369 atoms

unfix                  mynvt

write_data             nvt_2ns.data
System init for write_data ...
Generated 21 of 21 mixed pair_coeff terms from arithmetic mixing rule
