LAMMPS (29 Aug 2024)
units                  real
atom_style	       full
bond_style	       harmonic
angle_style	       harmonic
boundary	       p p p

neighbor 2.0 bin
neigh_modify every 1 delay 0 check yes

# ============= read data and parameters files

read_data             memb_3.lammps
Reading data file ...
  orthogonal box = (-0.1495 -0.193001 -38.75) to (32.8505 32.806999 41.25)
  reading atoms ...
  4363 atoms
  scanning bonds ...
  scanning angles ...
  scanning dihedrals ...
  scanning impropers ...
  orthogonal box = (-0.1495 -0.193001 -38.75) to (32.8505 32.806999 41.25)
  reading bonds ...
  3927 bonds
  reading angles ...
  4665 angles
  reading dihedrals ...
  6903 dihedrals
  reading impropers ...
  1144 impropers
Finding 1-2 1-3 1-4 neighbors ...
     4 = max # of 1-2 neighbors
     6 = max # of 1-3 neighbors
    18 = max # of 1-4 neighbors
    18 = max # of special neighbors

pair_style            lj/cut 10.0
pair_modify           shift yes mix arithmetic

pair_coeff  1  1      0.0859  3.3997
pair_coeff  2  2      0.0659  3.5000
pair_coeff  3  3      0.0859  3.3997
pair_coeff  4  4      0.0859  3.3997
pair_coeff  5  5      0.0299  2.5000
pair_coeff  6  6      0.0000  1.0000
pair_coeff  7  7      0.1521  3.1507

bond_coeff     1      938.0    1.42
bond_coeff     2      661.2    1.10
bond_coeff     3      938.0    1.42
bond_coeff     4      938.0    1.42
bond_coeff     5      450.0    0.9572

angle_coeff    1      126      120.0
angle_coeff    2      126      120.0
angle_coeff    3      126      120.0
angle_coeff    4      78.8     109.5
angle_coeff    5      55.0     104.52

group  water     type 6  7
2985 atoms in group water
group  memb      type 1
432 atoms in group memb
group  CG1       type 3
448 atoms in group CG1
group  CG2       type 4
448 atoms in group CG2
group  CG3       type 3 4
896 atoms in group CG3

compute 9 all pe/atom

dump dump_1 all custom 500 dump.lammpstrj id type x y z

timestep 1.0
thermo_style custom step time cpu temp pe ke etotal press vol
thermo 100

fix                    myshk1  water shake 1.0e-5 200 0 b 5 a 5
Finding SHAKE clusters ...
       0 = # of size 2 clusters
       0 = # of size 3 clusters
       0 = # of size 4 clusters
     995 = # of frozen angles
  find clusters CPU = 0.001 seconds

minimize               1.0e-4 1.0e-6 100 1000

CITE-CITE-CITE-CITE-CITE-CITE-CITE-CITE-CITE-CITE-CITE-CITE-CITE

Your simulation uses code contributions which should be cited:

- Type Label Framework: https://doi.org/10.1021/acs.jpcb.3c08419

@Article{Gissinger24,
 author = {Jacob R. Gissinger, Ilia Nikiforov, Yaser Afshar, Brendon Waters, Moon-ki Choi, Daniel S. Karls, Alexander Stukowski, Wonpil Im, Hendrik Heinz, Axel Kohlmeyer, and Ellad B. Tadmor},
 title = {Type Label Framework for Bonded Force Fields in LAMMPS},
 journal = {J. Phys. Chem. B},
 year =    2024,
 volume =  128,
 number =  13,
 pages =   {3282â€“-3297}
}

CITE-CITE-CITE-CITE-CITE-CITE-CITE-CITE-CITE-CITE-CITE-CITE-CITE

Generated 21 of 21 mixed pair_coeff terms from arithmetic mixing rule
  Substituting constraints with harmonic restraint forces using kbond=1987 (../fix_shake.cpp:386)
Step          Time           CPU            Temp          PotEng         KinEng         TotEng         Press          Volume
0   0              0              0              8.5066053e+12  0              8.5066053e+12  2.678075e+13   87120
Loop time of 3.08715 on 1 procs for 100 steps with 4363 atoms

Minimization stats:
  Stopping criterion = max iterations
  Energy initial, next-to-last, final =
  Force two-norm initial, final = 4.1278633e+14 753.32094
  Force max component initial, final = 2.633483e+14 212.91267
  Final line search alpha, max atom move = 0.00047173203 0.10043773
  Iterations, force evaluations = 100 130

fix                    freeze memb setforce 0.0 0.0 0.0

#fix                   pistonkeep CG3  setforce  0.0 0.0 NULL
#fix                   myforce1   CG1  aveforce NULL NULL  -0.03180     #P=50 bars
#fix                   myforce2   CG2  aveforce NULL NULL  NULL
fix                    freeze1    CG3  setforce 0.0 0.0 0.0

fix                    mynvt  all nvt temp 300 300 100.0
run                    100000
Generated 21 of 21 mixed pair_coeff terms from arithmetic mixing rule
Step          Time           CPU            Temp          PotEng         KinEng         TotEng         Press          Volume
100   0              0              0              8771.5795      0              8771.5795      61898.345      87120
Averages over the last 501 of 1001 rows, steps 50100 to 100100:
Temp PotEng KinEng TotEng Press Volume
300.258 8001.26 3013.51 11014.8 58175.4 87120
Loop time of 1925.29 on 1 procs for 100000 steps with 4363 atoms

unfix                  mynvt

write_data             equilb_300ps.data
System init for write_data ...
Generated 21 of 21 mixed pair_coeff terms from arithmetic mixing rule
