LAMMPS (29 Aug 2024)
units                  real
atom_style	       full
bond_style	       harmonic
angle_style	       harmonic
boundary	       p p p

neighbor 2.0 bin
neigh_modify every 1 delay 0 check yes

# ============= read data and parameters files

pair_style            lj/cut 10.0
pair_modify           shift yes mix arithmetic

read_data             equilb_100ps.data
Reading data file ...
  orthogonal box = (-0.1495 -0.193001 -38.75) to (32.8505 32.806999 41.25)
  reading atoms ...
  4353 atoms
  reading velocities ...
  4353 velocities
  scanning bonds ...
  scanning angles ...
  scanning dihedrals ...
  scanning impropers ...
  orthogonal box = (-0.1495 -0.193001 -38.75) to (32.8505 32.806999 41.25)
  reading bonds ...
  3924 bonds
  reading angles ...
  4653 angles
  reading dihedrals ...
  6987 dihedrals
  reading impropers ...
  1158 impropers
Finding 1-2 1-3 1-4 neighbors ...
     3 = max # of 1-2 neighbors
     6 = max # of 1-3 neighbors
    18 = max # of 1-4 neighbors
    18 = max # of special neighbors

pair_coeff  1  1      0.0859  3.3997
pair_coeff  2  2      0.0559  2.757
pair_coeff  3  3      0.0859  3.3997
pair_coeff  4  4      0.0859  3.3997
pair_coeff  5  5      0.0000  1.0000
pair_coeff  6  6      0.1598  3.0330
pair_coeff  7  7      0.1521  3.1507

bond_coeff     1      938.0    1.42
bond_coeff     2      190.96   1.149
bond_coeff     3      938.0    1.42
bond_coeff     4      938.0    1.42
bond_coeff     5      450.0    0.9572

angle_coeff    1      126      120.0
angle_coeff    2      126      120.0
angle_coeff    3      126      120.0
angle_coeff    4      55.0     104.52
angle_coeff    5      295.4    180.0

group  water     type 5  7
2985 atoms in group water
group  memb      type 1
442 atoms in group memb
group  CG1       type 3
448 atoms in group CG1
group  CG2       type 4
448 atoms in group CG2
group  CG3       type 3 4
896 atoms in group CG3

dump dump_1 all custom 500 dump.lammpstrj id type x y z

timestep 1.0
thermo_style custom step time cpu temp pe ke etotal press vol
thermo 100

fix                    myshk1  water shake 1.0e-5 200 0 b 5 a 4
Finding SHAKE clusters ...
       0 = # of size 2 clusters
       0 = # of size 3 clusters
       0 = # of size 4 clusters
     995 = # of frozen angles
  find clusters CPU = 0.001 seconds

fix                    freeze memb setforce 0.0 0.0 0.0

fix                    pistonkeep CG3  setforce  0.0   0.0    NULL
fix                    myforce1   CG1  aveforce  NULL  NULL  -1.439     #P=250 bars
fix                    freeze1    CG2  setforce 0.0 0.0 0.0

fix                    mynvt  all nvt temp 300 300 100.0
run                    500000

CITE-CITE-CITE-CITE-CITE-CITE-CITE-CITE-CITE-CITE-CITE-CITE-CITE

Your simulation uses code contributions which should be cited:

- Type Label Framework: https://doi.org/10.1021/acs.jpcb.3c08419

@Article{Gissinger24,
 author = {Jacob R. Gissinger, Ilia Nikiforov, Yaser Afshar, Brendon Waters, Moon-ki Choi, Daniel S. Karls, Alexander Stukowski, Wonpil Im, Hendrik Heinz, Axel Kohlmeyer, and Ellad B. Tadmor},
 title = {Type Label Framework for Bonded Force Fields in LAMMPS},
 journal = {J. Phys. Chem. B},
 year =    2024,
 volume =  128,
 number =  13,
 pages =   {3282â€“-3297}
}

CITE-CITE-CITE-CITE-CITE-CITE-CITE-CITE-CITE-CITE-CITE-CITE-CITE

Generated 21 of 21 mixed pair_coeff terms from arithmetic mixing rule
Step          Time           CPU            Temp          PotEng         KinEng         TotEng         Press          Volume
0   0              0              301.90366      9412.0759      3021.0229      12433.099      58644.007      87120
Averages over the last 2501 of 5001 rows, steps 250000 to 500000:
Temp PotEng KinEng TotEng Press Volume
300.03 10532.8 3002.27 13535 65241.8 87120
Loop time of 4989.34 on 8 procs for 500000 steps with 4353 atoms

unfix                  mynvt

write_data             nvt_500ps.data
System init for write_data ...
Generated 21 of 21 mixed pair_coeff terms from arithmetic mixing rule
